<configuration>
  <input><net-file value="cross_500.net.xml"/><route-files value="cross_500.rou.xml"/></input>
  <time><begin value="0"/><end value="10000"/><step-length value="0.1"/></time>
</configuration>
